/*--------------------------------*- C++ -*----------------------------------*\
| =========                 |                                                 |
| \\      /  F ield         | OpenFOAM: The Open Source CFD Toolbox           |
|  \\    /   O peration     | Version:  2.1.1                                 |
|   \\  /    A nd           | Web:      www.OpenFOAM.org                      |
|    \\/     M anipulation  |                                                 |
\*---------------------------------------------------------------------------*/
FoamFile
{
    version     2.0;
    format      ascii;
    class       dictionary;
    location    "system";
    object      controlDict;
}
// * * * * * * * * * * * * * * * * * * * * * * * * * * * * * * * * * * * * * //

application     rhoEnergyFoam;

startFrom       latestTime;

startTime       0;

stopAt          endTime;

endTime         20;

deltaT          0.000000002;

writeControl    adjustableRunTime;

writeInterval   0.1;

purgeWrite      0;

writeFormat     ascii;

writePrecision  6;

writeCompression off;

timeFormat      general;

timePrecision   6;

runTimeModifiable true;

adjustTimeStep  yes;

maxCo         1.0;

maxDeltaT       1.;

pressArtDiff    true; //activate artificial diffusion on pressure
convArtDiff     true; //activate artificial diffusion on pressure

ducLevelPress       0.00;
ducLevelConv        0.05;
epsilon             0.98666435;
kp                  0.25;//25;
ku                  0.75;//75;
rm		    0.8395;
minfty              0.7047;

functions
{

};


// ************************************************************************* //
