/*--------------------------------*- C++ -*----------------------------------*\
| =========                 |                                                 |
| \\      /  F ield         | OpenFOAM: The Open Source CFD Toolbox           |
|  \\    /   O peration     | Version:  2.1.1                                 |
|   \\  /    A nd           | Web:      www.OpenFOAM.org                      |
|    \\/     M anipulation  |                                                 |
\*---------------------------------------------------------------------------*/
FoamFile
{
    version     2.0;
    format      ascii;
    class       dictionary;
    location    "system";
    object      controlDict;
}
// * * * * * * * * * * * * * * * * * * * * * * * * * * * * * * * * * * * * * //

application     rhoEnergyFoam;

startFrom       startTime;

startTime       0;

stopAt          endTime;

endTime         4;

deltaT          0.0002;

writeControl    adjustableRunTime;

writeInterval   0.1;

purgeWrite      0;

writeFormat     ascii;

writePrecision  6;

writeCompression off;

timeFormat      general;

timePrecision   6;

runTimeModifiable true;

adjustTimeStep  yes;

maxCo          0.2;

maxDeltaT       0.001;

pressArtDiff    true; //activate artificial diffusion on pressure
convArtDiff     true; //activate artificial diffusion on pressure

ku        0.25;
kp        0.25;
ducLevelPress       0.00; // pressure diffusion threshold 
ducLevelConv        0.05; // convective diffusion threshold
epsilon             12.6; // u_infty^2
minfty              3.; // Reference Mach number needed by AUSM flux (free stream Mach number)

functions
 (
    writeduc
    {
        type writeRegisteredObject;
        functionObjectLibs ( "libIOFunctionObjects.so" );
        objectNames ("ducSensor");
        outputControl     outputTime;
    }
 );


// ************************************************************************* //
