/*--------------------------------*- C++ -*----------------------------------*\
| =========                 |                                                 |
| \\      /  F ield         | OpenFOAM: The Open Source CFD Toolbox           |
|  \\    /   O peration     | Version:  2206                                  |
|   \\  /    A nd           | Website:  www.openfoam.com                      |
|    \\/     M anipulation  |                                                 |
\*---------------------------------------------------------------------------*/
FoamFile
{
    version     2.0;
    format      ascii;
    arch        "LSB;label=32;scalar=64";
    class       volVectorField;
    location    "0";
    object      U;
}
// * * * * * * * * * * * * * * * * * * * * * * * * * * * * * * * * * * * * * //

dimensions      [0 1 -1 0 0 0 0];

internalField   uniform (0.991894 0.0530246 0);

boundaryField
{
    inlet
    {
        type            fixedValue;
        value           uniform (0.0530246 0.991894 0);
    }
    bottom
    {
        type            fixedValue;
        value           uniform (0.0530246 0.991894 0);
    }
    symmetry_patch
    {
        type            symmetryPlane;
    }
    top
    {
        type            zeroGradient;
    }
    outlet
    {
        type            zeroGradient;
    }
    side_wall
    {
        type            zeroGradient;
    }
    Wing
    {
        type            slip;
    }
}


// ************************************************************************* //
