/*--------------------------------*- C++ -*----------------------------------*\
| =========                 |                                                 |
| \\      /  F ield         | OpenFOAM: The Open Source CFD Toolbox           |
|  \\    /   O peration     | Version:  v2006                                 |
|   \\  /    A nd           | Website:  www.openfoam.com                      |
|    \\/     M anipulation  |                                                 |
\*---------------------------------------------------------------------------*/
FoamFile
{
    version     2.0;
    format      ascii;
    class       volScalarField;
    object      p;
}
// * * * * * * * * * * * * * * * * * * * * * * * * * * * * * * * * * * * * * //

dimensions      [1 -1 -2 0 0 0 0];

internalField   uniform 1;

boundaryField
{
    side1x
    {
        type            cyclic;
    }

    side2x
    {
        type            cyclic;
    }

   side1z
    {
        type            cyclic;
    }
   side2z
    {
        type            cyclic;
    }

   bottom
    {
        type            zeroGradient;
    }
    top
    {
        type            zeroGradient;
    }
}

// ************************************************************************* //
