/*--------------------------------*- C++ -*----------------------------------*\
| =========                 |                                                 |
| \\      /  F ield         | OpenFOAM: The Open Source CFD Toolbox           |
|  \\    /   O peration     | Version:  2.1.1                                 |
|   \\  /    A nd           | Web:      www.OpenFOAM.org                      |
|    \\/     M anipulation  |                                                 |
\*---------------------------------------------------------------------------*/
FoamFile
{
    version     2.0;
    format      ascii;
    class       dictionary;
    location    "system";
    object      sampleDict;
}
// * * * * * * * * * * * * * * * * * * * * * * * * * * * * * * * * * * * * * //

interpolationScheme cellPointFace;

setFormat       raw;

sets
(
   profile 
    {
        type    cloud;
        axis    x;
        points   (
 (   1.00000000       0.00000000       0.00000000     )
 (  0.999000311      -1.37406300E-06   0.00000000     )
 (  0.997956276       6.63465617E-05   0.00000000     )
 (  0.996864796       1.31053006E-04   0.00000000     )
 (  0.995723784       1.96467503E-04   0.00000000     )
 (  0.994531214       2.63208494E-04   0.00000000     )
 (  0.993284583       3.31141695E-04   0.00000000     )
 (  0.991981924       4.00538906E-04   0.00000000     )
 (  0.990620375       4.68996586E-04   0.00000000     )
 (  0.989197910       5.35148021E-04   0.00000000     )
 (  0.987711489       6.00496482E-04   0.00000000     )
 (  0.986158788       6.64984225E-04   0.00000000     )
 (  0.984537184       7.28642684E-04   0.00000000     )
 (  0.982843697       7.92809180E-04   0.00000000     )
 (  0.981075525       8.56423518E-04   0.00000000     )
 (  0.979229391       9.17172525E-04   0.00000000     )
 (  0.977302372       9.73603223E-04   0.00000000     )
 (  0.975291312       1.02872704E-03   0.00000000     )
 (  0.973192692       1.08054397E-03   0.00000000     )
 (  0.971003413       1.12581498E-03   0.00000000     )
 (  0.968719721       1.16773101E-03   0.00000000     )
 (  0.966338217       1.20974297E-03   0.00000000     )
 (  0.963855088       1.24125299E-03   0.00000000     )
 (  0.961266816       1.24999997E-03   0.00000000     )
 (  0.958569288       1.24999997E-03   0.00000000     )
 (  0.955758810       1.24999997E-03   0.00000000     )
 (  0.952831209       1.24999997E-03   0.00000000     )
 (  0.949782610       1.24287000E-03   0.00000000     )
 (  0.946608722       1.21272099E-03   0.00000000     )
 (  0.943305314       1.16621796E-03   0.00000000     )
 (  0.939868510       1.11170299E-03   0.00000000     )
 (  0.936293721       1.03246700E-03   0.00000000     )
 (  0.932576597       9.27200483E-04   0.00000000     )
 (  0.928713024       8.05259915E-04   0.00000000     )
 (  0.924698591       6.61135477E-04   0.00000000     )
 (  0.920528829       4.87543904E-04   0.00000000     )
 (  0.916199386       2.91350210E-04   0.00000000     )
 (  0.911705792       7.25744467E-05   0.00000000     )
 (  0.907043695      -1.76713307E-04   0.00000000     )
 (  0.902208924      -4.54002613E-04   0.00000000     )
 (  0.897197306      -7.61746312E-04   0.00000000     )
 (  0.892004490      -1.10575999E-03   0.00000000     )
 (  0.886626482      -1.48168998E-03   0.00000000     )
 (  0.881059527      -1.89128495E-03   0.00000000     )
 (  0.875299275      -2.33946089E-03   0.00000000     )
 (  0.869342506      -2.82415398E-03   0.00000000     )
 (  0.863185823      -3.35102808E-03   0.00000000     )
 (  0.856825590      -3.91995488E-03   0.00000000     )
 (  0.850258589      -4.52615786E-03   0.00000000     )
 (  0.843482018      -5.17432485E-03   0.00000000     )
 (  0.836493611      -5.86776622E-03   0.00000000     )
 (  0.829291582      -6.61186501E-03   0.00000000     )
 (  0.821874022      -7.40777981E-03   0.00000000     )
 (  0.814238429      -8.24852102E-03   0.00000000     )
 (  0.806384027      -9.13811382E-03   0.00000000     )
 (  0.798309922      -1.00759799E-02   0.00000000     )
 (  0.790015519      -1.10608796E-02   0.00000000     )
 (  0.781501114      -1.20977201E-02   0.00000000     )
 (  0.772768676      -1.31930904E-02   0.00000000     )
 (  0.763819098      -1.43501395E-02   0.00000000     )
 (  0.754652917      -1.55573599E-02   0.00000000     )
 (  0.745272219      -1.68152396E-02   0.00000000     )
 (  0.735679626      -1.81227997E-02   0.00000000     )
 (  0.725878477      -1.94802806E-02   0.00000000     )
 (  0.715872526      -2.08849106E-02   0.00000000     )
 (  0.705665171      -2.23299004E-02   0.00000000     )
 (  0.695262015      -2.38166507E-02   0.00000000     )
 (  0.684668481      -2.53429506E-02   0.00000000     )
 (  0.673891127      -2.69083008E-02   0.00000000     )
 (  0.662935376      -2.85013709E-02   0.00000000     )
 (  0.651808977      -3.01210005E-02   0.00000000     )
 (  0.640523493      -3.17885503E-02   0.00000000     )
 (  0.629089117      -3.35153304E-02   0.00000000     )
 (  0.617500722      -3.51921506E-02   0.00000000     )
 (  0.605763376      -3.67912017E-02   0.00000000     )
 (  0.593903124      -3.84140201E-02   0.00000000     )
 (  0.581934094      -4.00865711E-02   0.00000000     )
 (  0.569859982      -4.17459011E-02   0.00000000     )
 (  0.557691216      -4.33819890E-02   0.00000000     )
 (  0.545438528      -4.49796915E-02   0.00000000     )
 (  0.533113718      -4.65351492E-02   0.00000000     )
 (  0.520730495      -4.80430089E-02   0.00000000     )
 (  0.508302271      -4.95074093E-02   0.00000000     )
 (  0.495838910      -5.08913994E-02   0.00000000     )
 (  0.483353496      -5.21950200E-02   0.00000000     )
 (  0.470860600      -5.34071997E-02   0.00000000     )
 (  0.458373904      -5.45378290E-02   0.00000000     )
 (  0.445906103      -5.55470213E-02   0.00000000     )
 (  0.433469892      -5.64498790E-02   0.00000000     )
 (  0.421080887      -5.72226718E-02   0.00000000     )
 (  0.408751994      -5.78916296E-02   0.00000000     )
 (  0.396496803      -5.84027991E-02   0.00000000     )
 (  0.384329289      -5.88051900E-02   0.00000000     )
 (  0.372262508      -5.90300411E-02   0.00000000     )
 (  0.360309213      -5.91707192E-02   0.00000000     )
 (  0.348482609      -5.91706894E-02   0.00000000     )
 (  0.336793095      -5.90631589E-02   0.00000000     )
 (  0.325253308      -5.88920712E-02   0.00000000     )
 (  0.313871711      -5.85894510E-02   0.00000000     )
 (  0.302658290      -5.82257807E-02   0.00000000     )
 (  0.291621596      -5.77726401E-02   0.00000000     )
 (  0.280769289      -5.72714694E-02   0.00000000     )
 (  0.270107895      -5.67109808E-02   0.00000000     )
 (  0.259645790      -5.60993701E-02   0.00000000     )
 (  0.249387398      -5.54274507E-02   0.00000000     )
 (  0.239337996      -5.47212698E-02   0.00000000     )
 (  0.229501396      -5.39794490E-02   0.00000000     )
 (  0.219882101      -5.32102399E-02   0.00000000     )
 (  0.210481599      -5.24153002E-02   0.00000000     )
 (  0.201304898      -5.15920892E-02   0.00000000     )
 (  0.192354098      -5.07355593E-02   0.00000000     )
 (  0.183628798      -4.98554185E-02   0.00000000     )
 (  0.175131306      -4.89612110E-02   0.00000000     )
 (  0.166860402      -4.80497107E-02   0.00000000     )
 (  0.158817604      -4.71231304E-02   0.00000000     )
 (  0.151000500      -4.61803898E-02   0.00000000     )
 (  0.143411800      -4.52191792E-02   0.00000000     )
 (  0.136048093      -4.42377292E-02   0.00000000     )
 (  0.128908798      -4.32433002E-02   0.00000000     )
 (  0.121988602      -4.22378890E-02   0.00000000     )
 (  0.115289100      -4.12208512E-02   0.00000000     )
 (  0.108805798      -4.01920006E-02   0.00000000     )
 (  0.102534696      -3.91512811E-02   0.00000000     )
 (   9.64757130E-02  -3.81018817E-02   0.00000000     )
 (   9.06231627E-02  -3.70432809E-02   0.00000000     )
 (   8.49738270E-02  -3.59761901E-02   0.00000000     )
 (   7.95244575E-02  -3.48997489E-02   0.00000000     )
 (   7.42708966E-02  -3.38158198E-02   0.00000000     )
 (   6.92080036E-02  -3.27323303E-02   0.00000000     )
 (   6.43308610E-02  -3.16509902E-02   0.00000000     )
 (   5.96368201E-02  -3.05624809E-02   0.00000000     )
 (   5.51250316E-02  -2.94626206E-02   0.00000000     )
 (   5.07898293E-02  -2.83526201E-02   0.00000000     )
 (   4.66280095E-02  -2.72308905E-02   0.00000000     )
 (   4.26355414E-02  -2.60959007E-02   0.00000000     )
 (   3.88069116E-02  -2.49502305E-02   0.00000000     )
 (   3.51396501E-02  -2.37995591E-02   0.00000000     )
 (   3.16270813E-02  -2.26379894E-02   0.00000000     )
 (   2.82768793E-02  -2.14546993E-02   0.00000000     )
 (   2.50781104E-02  -2.02432703E-02   0.00000000     )
 (   2.20331494E-02  -1.90113205E-02   0.00000000     )
 (   1.91334691E-02  -1.77657995E-02   0.00000000     )
 (   1.63780209E-02  -1.64944101E-02   0.00000000     )
 (   1.37860999E-02  -1.51776802E-02   0.00000000     )
 (   1.13424901E-02  -1.38087999E-02   0.00000000     )
 (   9.08233132E-03  -1.23783704E-02   0.00000000     )
 (   6.99147815E-03  -1.08656604E-02   0.00000000     )
 (   5.09127183E-03  -9.29360557E-03   0.00000000     )
 (   3.32910800E-03  -7.66854594E-03   0.00000000     )
 (   1.94735499E-03  -5.90826478E-03   0.00000000     )
 (   8.82276217E-04  -3.96926189E-03   0.00000000     )
 (   2.81971792E-04  -1.98923005E-03   0.00000000     )
 (   0.00000000       0.00000000       0.00000000     )
 (   2.70527496E-04   1.99486595E-03   0.00000000     )
 (   8.72294127E-04   3.96631379E-03   0.00000000     )
 (   2.00858107E-03   5.86660020E-03   0.00000000     )
 (   3.43073602E-03   7.61068380E-03   0.00000000     )
 (   5.17767714E-03   9.24423896E-03   0.00000000     )
 (   7.06435600E-03   1.08357798E-02   0.00000000     )
 (   9.13905073E-03   1.23705799E-02   0.00000000     )
 (   1.13919200E-02   1.38151599E-02   0.00000000     )
 (   1.38339400E-02   1.51925897E-02   0.00000000     )
 (   1.64284892E-02   1.65054891E-02   0.00000000     )
 (   1.91921201E-02   1.77638102E-02   0.00000000     )
 (   2.21047401E-02   1.89841297E-02   0.00000000     )
 (   2.51687802E-02   2.01738495E-02   0.00000000     )
 (   2.83871796E-02   2.13369206E-02   0.00000000     )
 (   3.17551196E-02   2.24796198E-02   0.00000000     )
 (   3.52819301E-02   2.36032400E-02   0.00000000     )
 (   3.89629416E-02   2.47194394E-02   0.00000000     )
 (   4.28034104E-02   2.58312691E-02   0.00000000     )
 (   4.68076095E-02   2.69373301E-02   0.00000000     )
 (   5.09777293E-02   2.80383602E-02   0.00000000     )
 (   5.53203598E-02   2.91348305E-02   0.00000000     )
 (   5.98369017E-02   3.02303508E-02   0.00000000     )
 (   6.45318329E-02   3.13263610E-02   0.00000000     )
 (   6.94100633E-02   3.24216001E-02   0.00000000     )
 (   7.44745284E-02   3.35159898E-02   0.00000000     )
 (   7.97306970E-02   3.46097797E-02   0.00000000     )
 (   8.51818398E-02   3.56990583E-02   0.00000000     )
 (   9.08328667E-02   3.67837697E-02   0.00000000     )
 (   9.66872275E-02   3.78627889E-02   0.00000000     )
 (  0.102748498       3.89335603E-02   0.00000000     )
 (  0.109020501       3.99968885E-02   0.00000000     )
 (  0.115505300       4.10545804E-02   0.00000000     )
 (  0.122206204       4.21081111E-02   0.00000000     )
 (  0.129126102       4.31520008E-02   0.00000000     )
 (  0.136267394       4.41855900E-02   0.00000000     )
 (  0.143633202       4.52051088E-02   0.00000000     )
 (  0.151225507       4.61963192E-02   0.00000000     )
 (  0.159046501       4.71629798E-02   0.00000000     )
 (  0.167094499       4.81162705E-02   0.00000000     )
 (  0.175370306       4.90565784E-02   0.00000000     )
 (  0.183873206       4.99853902E-02   0.00000000     )
 (  0.192603007       5.09047210E-02   0.00000000     )
 (  0.201558605       5.18114492E-02   0.00000000     )
 (  0.210738599       5.27043603E-02   0.00000000     )
 (  0.220141098       5.35821207E-02   0.00000000     )
 (  0.229763106       5.44462092E-02   0.00000000     )
 (  0.239602000       5.52890301E-02   0.00000000     )
 (  0.249655902       5.60811199E-02   0.00000000     )
 (  0.259920090       5.68300597E-02   0.00000000     )
 (  0.270388693       5.75279705E-02   0.00000000     )
 (  0.281056195       5.81808798E-02   0.00000000     )
 (  0.291914612       5.87992817E-02   0.00000000     )
 (  0.302956998       5.93856499E-02   0.00000000     )
 (  0.314175487       5.99345900E-02   0.00000000     )
 (  0.325562000       6.04498088E-02   0.00000000     )
 (  0.337107509       6.09198213E-02   0.00000000     )
 (  0.348802298       6.13504387E-02   0.00000000     )
 (  0.360636503       6.17276803E-02   0.00000000     )
 (  0.372599304       6.20609596E-02   0.00000000     )
 (  0.384679407       6.23305701E-02   0.00000000     )
 (  0.396865398       6.25527501E-02   0.00000000     )
 (  0.409144491       6.27125129E-02   0.00000000     )
 (  0.421504587       6.28323779E-02   0.00000000     )
 (  0.433932185       6.28549680E-02   0.00000000     )
 (  0.446414709       6.28596172E-02   0.00000000     )
 (  0.458938211       6.28215969E-02   0.00000000     )
 (  0.471489191       6.26654029E-02   0.00000000     )
 (  0.484053791       6.24708086E-02   0.00000000     )
 (  0.496618301       6.22015186E-02   0.00000000     )
 (  0.509168029       6.18652813E-02   0.00000000     )
 (  0.521689892       6.14451095E-02   0.00000000     )
 (  0.534169316       6.09669089E-02   0.00000000     )
 (  0.546593606       6.04151785E-02   0.00000000     )
 (  0.558947921       5.97869605E-02   0.00000000     )
 (  0.571219802       5.90792410E-02   0.00000000     )
 (  0.583396792       5.83113097E-02   0.00000000     )
 (  0.595466495       5.74785210E-02   0.00000000     )
 (  0.607417822       5.65939397E-02   0.00000000     )
 (  0.619239271       5.56548201E-02   0.00000000     )
 (  0.630919814       5.46693914E-02   0.00000000     )
 (  0.642449975       5.36375493E-02   0.00000000     )
 (  0.653820813       5.25748506E-02   0.00000000     )
 (  0.665022373       5.14722914E-02   0.00000000     )
 (  0.676041603       5.02976812E-02   0.00000000     )
 (  0.686874092       4.90694903E-02   0.00000000     )
 (  0.697524190       4.79003899E-02   0.00000000     )
 (  0.707983077       4.67753001E-02   0.00000000     )
 (  0.718233109       4.55864891E-02   0.00000000     )
 (  0.728267729       4.43200804E-02   0.00000000     )
 (  0.738094926       4.30846512E-02   0.00000000     )
 (  0.747714579       4.19147499E-02   0.00000000     )
 (  0.757114887       4.07416299E-02   0.00000000     )
 (  0.766288519       3.95253003E-02   0.00000000     )
 (  0.775236905       3.82999703E-02   0.00000000     )
 (  0.783963501       3.70956995E-02   0.00000000     )
 (  0.792464972       3.59054506E-02   0.00000000     )
 (  0.800740778       3.47249284E-02   0.00000000     )
 (  0.808791578       3.35543491E-02   0.00000000     )
 (  0.816617489       3.23968790E-02   0.00000000     )
 (  0.824220121       3.12524810E-02   0.00000000     )
 (  0.831600308       3.01240291E-02   0.00000000     )
 (  0.838761389       2.90188696E-02   0.00000000     )
 (  0.845705986       2.79370099E-02   0.00000000     )
 (  0.852435410       2.68768501E-02   0.00000000     )
 (  0.858952701       2.58376002E-02   0.00000000     )
 (  0.865261018       2.48200893E-02   0.00000000     )
 (  0.871364295       2.38252208E-02   0.00000000     )
 (  0.877264977       2.28530299E-02   0.00000000     )
 (  0.882968128       2.19038706E-02   0.00000000     )
 (  0.888476372       2.09788401E-02   0.00000000     )
 (  0.893795073       2.00775098E-02   0.00000000     )
 (  0.898927629       1.91999301E-02   0.00000000     )
 (  0.903878927       1.83460005E-02   0.00000000     )
 (  0.908652782       1.75151192E-02   0.00000000     )
 (  0.913253784       1.67081896E-02   0.00000000     )
 (  0.917686820       1.59260891E-02   0.00000000     )
 (  0.921956122       1.51690897E-02   0.00000000     )
 (  0.926066577       1.44341895E-02   0.00000000     )
 (  0.930021584       1.37188602E-02   0.00000000     )
 (  0.933824897       1.30215203E-02   0.00000000     )
 (  0.937483311       1.23449201E-02   0.00000000     )
 (  0.941000521       1.16924802E-02   0.00000000     )
 (  0.944381475       1.10647297E-02   0.00000000     )
 (  0.947630584       1.04593402E-02   0.00000000     )
 (  0.950751781       9.87479743E-03   0.00000000     )
 (  0.953748524       9.30978265E-03   0.00000000     )
 (  0.956625581       8.76353309E-03   0.00000000     )
 (  0.959387422       8.23711045E-03   0.00000000     )
 (  0.962038219       7.73125794E-03   0.00000000     )
 (  0.964581311       7.24659907E-03   0.00000000     )
 (  0.967021525       6.78096106E-03   0.00000000     )
 (  0.969361484       6.33206917E-03   0.00000000     )
 (  0.971604228       5.89800207E-03   0.00000000     )
 (  0.973753810       5.47777722E-03   0.00000000     )
 (  0.975814223       5.07271290E-03   0.00000000     )
 (  0.977788627       4.68401192E-03   0.00000000     )
 (  0.979680479       4.31231922E-03   0.00000000     )
 (  0.981493711       3.95646086E-03   0.00000000     )
 (  0.983229697       3.61475698E-03   0.00000000     )
 (  0.984892488       3.28536099E-03   0.00000000     )
 (  0.986484289       2.96762097E-03   0.00000000     )
 (  0.988008201       2.66160397E-03   0.00000000     )
 (  0.989466310       2.36722804E-03   0.00000000     )
 (  0.990862191       2.08409689E-03   0.00000000     )
 (  0.992197812       1.81208004E-03   0.00000000     )
 (  0.993475974       1.55012205E-03   0.00000000     )
 (  0.994698524       1.29746797E-03   0.00000000     )
 (  0.995867908       1.05360895E-03   0.00000000     )
 (  0.996986389       8.18123517E-04   0.00000000     )
 (  0.998060584       5.98687213E-04   0.00000000     )
 (  0.999088824       3.90229106E-04   0.00000000     )
 (   1.00000000       0.00000000       0.00000000     )

         );
    interpolate true ;
    }
);

fields          ( p  );


// ************************************************************************* //
