/*--------------------------------*- C++ -*----------------------------------*\
| =========                 |                                                 |
| \\      /  F ield         | OpenFOAM: The Open Source CFD Toolbox           |
|  \\    /   O peration     | Version:  2.1.1                                 |
|   \\  /    A nd           | Web:      www.OpenFOAM.org                      |
|    \\/     M anipulation  |                                                 |
\*---------------------------------------------------------------------------*/
FoamFile
{
    version     2.0;
    format      ascii;
    class       dictionary;
    location    "system";
    object      controlDict;
}
// * * * * * * * * * * * * * * * * * * * * * * * * * * * * * * * * * * * * * //

application     rhoEnergyFoam;

startFrom       startTime;

startTime       0;

stopAt          endTime;

endTime         100;

deltaT           0.00065//

writeControl    adjustableRunTime;

writeInterval   10;

purgeWrite      0;

writeFormat     ascii;

writePrecision  6;

writeCompression off;

timeFormat      general;

timePrecision   6;

runTimeModifiable yes;

adjustTimeStep  yes;

maxCo         1.0;

maxDeltaT       1.;

pressArtDiff    false; //activate artificial diffusion on pressure
convArtDiff     false; //activate artificial diffusion on pressure

ducLevelPress       1.00;
ducLevelConv        1.00;
epsilon             0.00014; 
minfty              0.01; // Reference Mach number needed by AUSM flux (turbulent Mach number for HIT)
kp                  0.25;//25;
ku                  0.75;//75;



// ************************************************************************* //
