/*--------------------------------*- C++ -*----------------------------------*\
| =========                 |                                                 |
| \\      /  F ield         | OpenFOAM: The Open Source CFD Toolbox           |
|  \\    /   O peration     | Version:  2.1.1                                 |
|   \\  /    A nd           | Web:      www.OpenFOAM.org                      |
|    \\/     M anipulation  |                                                 |
\*---------------------------------------------------------------------------*/
FoamFile
{
    version     2.0;
    format      ascii;
    class       dictionary;
    location    "system";
    object      fvSolution;
}
// * * * * * * * * * * * * * * * * * * * * * * * * * * * * * * * * * * * * * //

solvers
{
    "(rho|rhoU|rhoE|e)"
    {
        solver          PCG;
        preconditioner  DIC;
    }

  p
    {
        solver          PCG;
        preconditioner  DIC;
        tolerance       1e-9;
        relTol          0.;
    }
  pFinal
    {
        solver          PCG;
        preconditioner  DIC;
        tolerance       1e-9;
        relTol          0.;
    }



    U
    {
        solver          smoothSolver;
        smoother        GaussSeidel;
        nSweeps         2;
        tolerance       1e-09;
        relTol          0.001;
    }

    h
    {
        $U;
        tolerance       1e-10;
        relTol          0;
    }
}


// ************************************************************************* //
